$ MSC.Nastran input file created on April     15, 2026 at 16:10:22 by
$ Patran 2025.2  (Student Edition)
$ Direct Text Input for Nastran System Cell Section
$ Normal Modes Analysis, Database
SOL 103
CEND
ECHO = NONE
$ Using Nastran default values for RESVEC
SUBCASE 1
   SUBTITLE=Default
   METHOD = 1
   SPC = 2
   VECTOR(SORT1,REAL)=ALL
   SPCFORCES(SORT1,REAL)=ALL
$ Direct Text Input for this Subcase
BEGIN BULK
HDF5OUT PRCISION 32     CMPRMTHD LZ4     LEVEL   5
PARAM   PRTMAXIM YES
EIGRL    1                       10      0                       MASS
$ Elements and Element Properties for region : 11_ESQ_xp_yp
PBARL    1       1               BAR
         .006    .003744 0.
$ Pset: "11_ESQ_xp_yp" will be imported as: "pbarl.1"
CBAR     104     1       109     200     1.      0.      0.
                        1.6295-41.2114-4 0.     1.6295-41.2114-4 0.
CBAR     200     1       200     303     1.      0.      0.
                        1.6295-41.2114-4 0.     1.6295-41.2114-4 0.
CBAR     300     1       303     403     1.      0.      0.
                        1.6295-41.2114-4 0.     1.6295-41.2114-4 0.
CBAR     400     1       403     445     1.      0.      0.
                        1.6295-41.2114-4 0.     1.6295-41.2114-4 0.
$ Elements and Element Properties for region : 11_ESQ_xn_yp
PBARL    2       1               BAR
         .006    .003744 0.
$ Pset: "11_ESQ_xn_yp" will be imported as: "pbarl.2"
CBAR     102     2       207     121     1.      0.      0.
*                                        -1.6295-4       1.2114-4
*        0.              -1.6295-4       1.2114-4        0.
CBAR     202     2       309     207     1.      0.      0.
*                                        -1.6295-4       1.2114-4
*        0.              -1.6295-4       1.2114-4        0.
CBAR     301     2       409     309     1.      0.      0.
*                                        -1.6295-4       1.2114-4
*        0.              -1.6295-4       1.2114-4        0.
CBAR     401     2       452     409     1.      0.      0.
*                                        -1.6295-4       1.2114-4
*        0.              -1.6295-4       1.2114-4        0.
$ Elements and Element Properties for region : 11_ESQ_xn_yn
PBARL    3       1               BAR
         .006    .003744 0.
$ Pset: "11_ESQ_xn_yn" will be imported as: "pbarl.3"
CBAR     100     3       141     219     1.      0.      0.
*                                        -1.6295-4       -1.2114-4
*        0.              -1.6295-4       -1.2114-4       0.
CBAR     203     3       219     321     1.      0.      0.
*                                        -1.6295-4       -1.2114-4
*        0.              -1.6295-4       -1.2114-4       0.
CBAR     303     3       321     421     1.      0.      0.
*                                        -1.6295-4       -1.2114-4
*        0.              -1.6295-4       -1.2114-4       0.
CBAR     403     3       421     464     1.      0.      0.
*                                        -1.6295-4       -1.2114-4
*        0.              -1.6295-4       -1.2114-4       0.
$ Elements and Element Properties for region : 11_ESQ_xp_yn
PBARL    4       1               BAR
         .006    .003744 0.
$ Pset: "11_ESQ_xp_yn" will be imported as: "pbarl.4"
CBAR     103     4       213     133     1.      0.      0.
*                                        1.6295-4        -1.2114-4
*        0.              1.6295-4        -1.2114-4       0.
CBAR     201     4       316     213     1.      0.      0.
*                                        1.6295-4        -1.2114-4
*        0.              1.6295-4        -1.2114-4       0.
CBAR     302     4       416     316     1.      0.      0.
*                                        1.6295-4        -1.2114-4
*        0.              1.6295-4        -1.2114-4       0.
CBAR     402     4       458     416     1.      0.      0.
*                                        1.6295-4        -1.2114-4
*        0.              1.6295-4        -1.2114-4       0.
$ Elements and Element Properties for region : 12_RIG-V1_xp
PBARL    5       1               BAR
         .0025   .0033   0.
$ Pset: "12_RIG-V1_xp" will be imported as: "pbarl.5"
CBAR     109     5       110     205     1.      0.      0.
                         .002    0.      0.      .002    0.      0.
CBAR     110     5       113     206     1.      0.      0.
                         .002    0.      0.      .002    0.      0.
CBAR     111     5       113     206     1.      0.      0.
                         .002    0.      0.      .002    0.      0.
CBAR     112     5       134     218     1.      0.      0.
                         .002    0.      0.      .002    0.      0.
CBAR     204     5       205     305     1.      0.      0.
                         .002    0.      0.      .002    0.      0.
CBAR     205     5       206     306     1.      0.      0.
                         .002    0.      0.      .002    0.      0.
CBAR     211     5       318     218     1.      0.      0.
                         .002    0.      0.      .002    0.      0.
CBAR     304     5       305     405     1.      0.      0.
                         .002    0.      0.      .002    0.      0.
CBAR     305     5       306     406     1.      0.      0.
                         .002    0.      0.      .002    0.      0.
CBAR     311     5       418     318     1.      0.      0.
                         .002    0.      0.      .002    0.      0.
CBAR     406     5       405     450     1.      0.      0.
                         .002    0.      0.      .002    0.      0.
CBAR     407     5       406     451     1.      0.      0.
                         .002    0.      0.      .002    0.      0.
CBAR     411     5       463     418     1.      0.      0.
                         .002    0.      0.      .002    0.      0.
$ Elements and Element Properties for region : 12_RIG-V1_xn
PBARL    6       1               BAR
         .0025   .0033   0.
$ Pset: "12_RIG-V1_xn" will be imported as: "pbarl.6"
CBAR     105     6       142     223     1.      0.      0.
                         -.002   0.      0.      -.002   0.      0.
CBAR     106     6       125     212     1.      0.      0.
                         -.002   0.      0.      -.002   0.      0.
CBAR     107     6       125     212     1.      0.      0.
                         -.002   0.      0.      -.002   0.      0.
CBAR     108     6       122     211     1.      0.      0.
                         -.002   0.      0.      -.002   0.      0.
CBAR     209     6       311     211     1.      0.      0.
                         -.002   0.      0.      -.002   0.      0.
CBAR     210     6       312     212     1.      0.      0.
                         -.002   0.      0.      -.002   0.      0.
CBAR     215     6       223     323     1.      0.      0.
                         -.002   0.      0.      -.002   0.      0.
CBAR     309     6       411     311     1.      0.      0.
                         -.002   0.      0.      -.002   0.      0.
CBAR     310     6       412     312     1.      0.      0.
                         -.002   0.      0.      -.002   0.      0.
CBAR     315     6       323     423     1.      0.      0.
                         -.002   0.      0.      -.002   0.      0.
CBAR     409     6       456     411     1.      0.      0.
                         -.002   0.      0.      -.002   0.      0.
CBAR     410     6       457     412     1.      0.      0.
                         -.002   0.      0.      -.002   0.      0.
CBAR     415     6       423     468     1.      0.      0.
                         -.002   0.      0.      -.002   0.      0.
$ Elements and Element Properties for region : 12_RIG-V1_yp
PBARL    7       1               BAR
         .0025   .0033   0.
$ Pset: "12_RIG-V1_yp" will be imported as: "pbarl.7"
CBAR     117     7       106     202     1.      0.      0.
                         0.      .002    0.      0.      .002    0.
CBAR     118     7       108     204     1.      0.      0.
                         0.      .002    0.      0.      .002    0.
CBAR     119     7       108     204     1.      0.      0.
                         0.      .002    0.      0.      .002    0.
CBAR     120     7       119     209     1.      0.      0.
                         0.      .002    0.      0.      .002    0.
CBAR     206     7       202     300     1.      0.      0.
                         0.      .002    0.      0.      .002    0.
CBAR     207     7       204     302     1.      0.      0.
                         0.      .002    0.      0.      .002    0.
CBAR     208     7       307     209     1.      0.      0.
                         0.      .002    0.      0.      .002    0.
CBAR     306     7       300     400     1.      0.      0.
                         0.      .002    0.      0.      .002    0.
CBAR     307     7       302     402     1.      0.      0.
                         0.      .002    0.      0.      .002    0.
CBAR     308     7       407     307     1.      0.      0.
                         0.      .002    0.      0.      .002    0.
CBAR     404     7       400     447     1.      0.      0.
                         0.      .002    0.      0.      .002    0.
CBAR     405     7       402     449     1.      0.      0.
                         0.      .002    0.      0.      .002    0.
CBAR     408     7       454     407     1.      0.      0.
                         0.      .002    0.      0.      .002    0.
$ Elements and Element Properties for region : 12_RIG-V1_yn
PBARL    8       1               BAR
         .0025   .0033   0.
$ Pset: "12_RIG-V1_yn" will be imported as: "pbarl.8"
CBAR     113     8       130     215     1.      0.      0.
                         0.      -.002   0.      0.      -.002   0.
CBAR     114     8       132     217     1.      0.      0.
                         0.      -.002   0.      0.      -.002   0.
CBAR     115     8       132     217     1.      0.      0.
                         0.      -.002   0.      0.      -.002   0.
CBAR     116     8       139     221     1.      0.      0.
                         0.      -.002   0.      0.      -.002   0.
CBAR     212     8       313     215     1.      0.      0.
                         0.      -.002   0.      0.      -.002   0.
CBAR     213     8       315     217     1.      0.      0.
                         0.      -.002   0.      0.      -.002   0.
CBAR     214     8       221     319     1.      0.      0.
                         0.      -.002   0.      0.      -.002   0.
CBAR     312     8       413     313     1.      0.      0.
                         0.      -.002   0.      0.      -.002   0.
CBAR     313     8       415     315     1.      0.      0.
                         0.      -.002   0.      0.      -.002   0.
CBAR     314     8       319     419     1.      0.      0.
                         0.      -.002   0.      0.      -.002   0.
CBAR     412     8       460     413     1.      0.      0.
                         0.      -.002   0.      0.      -.002   0.
CBAR     413     8       462     415     1.      0.      0.
                         0.      -.002   0.      0.      -.002   0.
CBAR     414     8       419     466     1.      0.      0.
                         0.      -.002   0.      0.      -.002   0.
$ Elements and Element Properties for region : 13_RIG-H1_xp
PBARL    9       1               BAR
         .0043   .004    0.
$ Pset: "13_RIG-H1_xp" will be imported as: "pbarl.9"
CBAR     125     9       133     134     0.      0.      1.
                         .0025   0.      .00165  .0025   0.      .00165
CBAR     126     9       134     113     0.      0.      1.
                         .0025   0.      .00165  .0025   0.      .00165
CBAR     127     9       113     110     0.      0.      1.
                         .0025   0.      .00165  .0025   0.      .00165
CBAR     128     9       110     109     0.      0.      1.
                         .0025   0.      .00165  .0025   0.      .00165
$ Elements and Element Properties for region : 13_RIG-H1_xn
PBARL    10      1               BAR
         .0043   .004    0.
$ Pset: "13_RIG-H1_xn" will be imported as: "pbarl.10"
CBAR     121     10      142     141     0.      0.      1.
                         -.0025  0.      .00165  -.0025  0.      .00165
CBAR     122     10      125     142     0.      0.      1.
                         -.0025  0.      .00165  -.0025  0.      .00165
CBAR     123     10      122     125     0.      0.      1.
                         -.0025  0.      .00165  -.0025  0.      .00165
CBAR     124     10      121     122     0.      0.      1.
                         -.0025  0.      .00165  -.0025  0.      .00165
$ Elements and Element Properties for region : 13_RIG-H1_yp
PBARL    11      1               BAR
         .0043   .004    0.
$ Pset: "13_RIG-H1_yp" will be imported as: "pbarl.11"
CBAR     136     11      109     111     0.      0.      1.
                         0.      .0025   .00165  0.      .0025   .00165
CBAR     137     11      111     106     0.      0.      1.
                         0.      .0025   .00165  0.      .0025   .00165
CBAR     138     11      106     107     0.      0.      1.
                         0.      .0025   .00165  0.      .0025   .00165
CBAR     139     11      107     108     0.      0.      1.
                         0.      .0025   .00165  0.      .0025   .00165
CBAR     140     11      108     120     0.      0.      1.
                         0.      .0025   .00165  0.      .0025   .00165
CBAR     141     11      120     119     0.      0.      1.
                         0.      .0025   .00165  0.      .0025   .00165
CBAR     142     11      119     123     0.      0.      1.
                         0.      .0025   .00165  0.      .0025   .00165
CBAR     143     11      123     121     0.      0.      1.
                         0.      .0025   .00165  0.      .0025   .00165
$ Elements and Element Properties for region : 13_RIG-H1_yn
PBARL    12      1               BAR
         .0043   .004    0.
$ Pset: "13_RIG-H1_yn" will be imported as: "pbarl.12"
CBAR     101     12      141     143     0.      0.      1.
                         0.      -.0025  .00165  0.      -.0025  .00165
CBAR     129     12      130     135     0.      0.      1.
                         0.      -.0025  .00165  0.      -.0025  .00165
CBAR     130     12      135     133     0.      0.      1.
                         0.      -.0025  .00165  0.      -.0025  .00165
CBAR     131     12      132     131     0.      0.      1.
                         0.      -.0025  .00165  0.      -.0025  .00165
CBAR     132     12      131     130     0.      0.      1.
                         0.      -.0025  .00165  0.      -.0025  .00165
CBAR     133     12      139     140     0.      0.      1.
                         0.      -.0025  .00165  0.      -.0025  .00165
CBAR     134     12      140     132     0.      0.      1.
                         0.      -.0025  .00165  0.      -.0025  .00165
CBAR     135     12      143     139     0.      0.      1.
                         0.      -.0025  .00165  0.      -.0025  .00165
$ Elements and Element Properties for region : 14_RIG-H3_xp
PBARL    13      1               BAR
         .004   .0050625 0.
$ Pset: "14_RIG-H3_xp" will be imported as: "pbarl.13"
CBAR     220     13      213     218     0.      0.      1.
                        .0026024 0.     -4.741-4.0026024 0.     -4.741-4
CBAR     221     13      218     206     0.      0.      1.
                        .0026024 0.     -4.741-4.0026024 0.     -4.741-4
CBAR     222     13      206     205     0.      0.      1.
                        .0026024 0.     -4.741-4.0026024 0.     -4.741-4
CBAR     223     13      205     206     0.      0.      1.
                        .0026024 0.     -4.741-4.0026024 0.     -4.741-4
CBAR     224     13      205     200     0.      0.      1.
                        .0026024 0.     -4.741-4.0026024 0.     -4.741-4
CBAR     225     13      200     205     0.      0.      1.
                        .0026024 0.     -4.741-4.0026024 0.     -4.741-4
CBAR     320     13      316     318     0.      0.      1.
                        .0026024 0.     -4.741-4.0026024 0.     -4.741-4
CBAR     321     13      318     306     0.      0.      1.
                        .0026024 0.     -4.741-4.0026024 0.     -4.741-4
CBAR     322     13      306     305     0.      0.      1.
                        .0026024 0.     -4.741-4.0026024 0.     -4.741-4
CBAR     323     13      305     306     0.      0.      1.
                        .0026024 0.     -4.741-4.0026024 0.     -4.741-4
CBAR     324     13      305     303     0.      0.      1.
                        .0026024 0.     -4.741-4.0026024 0.     -4.741-4
CBAR     325     13      303     305     0.      0.      1.
                        .0026024 0.     -4.741-4.0026024 0.     -4.741-4
CBAR     420     13      416     418     0.      0.      1.
                        .0026024 0.     -4.741-4.0026024 0.     -4.741-4
CBAR     421     13      418     406     0.      0.      1.
                        .0026024 0.     -4.741-4.0026024 0.     -4.741-4
CBAR     422     13      406     405     0.      0.      1.
                        .0026024 0.     -4.741-4.0026024 0.     -4.741-4
CBAR     423     13      405     403     0.      0.      1.
                        .0026024 0.     -4.741-4.0026024 0.     -4.741-4
CBAR     440     13      445     469     0.      0.      1.
                        .0026024 0.     -4.741-4.0026024 0.     -4.741-4
CBAR     441     13      469     450     0.      0.      1.
                        .0026024 0.     -4.741-4.0026024 0.     -4.741-4
CBAR     442     13      478     450     0.      0.      1.
                        .0026024 0.     -4.741-4.0026024 0.     -4.741-4
CBAR     443     13      451     478     0.      0.      1.
                        .0026024 0.     -4.741-4.0026024 0.     -4.741-4
$ ... 8 like lines cut
$ Elements and Element Properties for region : 14_RIG-H3_xn
PBARL    14      1               BAR
         .004   .0050625 0.
$ Pset: "14_RIG-H3_xn" will be imported as: "pbarl.14"
CBAR     216     14      223     219     0.      0.      1.
*                                        -.0026024       0.
*        -4.741-4        -.0026024       0.              -4.741-4
CBAR     217     14      212     223     0.      0.      1.
*                                        -.0026024       0.
*        -4.741-4        -.0026024       0.              -4.741-4
CBAR     218     14      211     212     0.      0.      1.
*                                        -.0026024       0.
*        -4.741-4        -.0026024       0.              -4.741-4
CBAR     219     14      207     211     0.      0.      1.
*                                        -.0026024       0.
*        -4.741-4        -.0026024       0.              -4.741-4
CBAR     316     14      323     321     0.      0.      1.
*                                        -.0026024       0.
*        -4.741-4        -.0026024       0.              -4.741-4
CBAR     317     14      312     323     0.      0.      1.
*                                        -.0026024       0.
*        -4.741-4        -.0026024       0.              -4.741-4
CBAR     318     14      311     312     0.      0.      1.
*                                        -.0026024       0.
*        -4.741-4        -.0026024       0.              -4.741-4
CBAR     319     14      309     311     0.      0.      1.
*                                        -.0026024       0.
*        -4.741-4        -.0026024       0.              -4.741-4
CBAR     416     14      409     411     0.      0.      1.
*                                        -.0026024       0.
*        -4.741-4        -.0026024       0.              -4.741-4
CBAR     417     14      411     412     0.      0.      1.
*                                        -.0026024       0.
*        -4.741-4        -.0026024       0.              -4.741-4
CBAR     418     14      412     423     0.      0.      1.
*                                        -.0026024       0.
*        -4.741-4        -.0026024       0.              -4.741-4
CBAR     419     14      423     421     0.      0.      1.
*                                        -.0026024       0.
*        -4.741-4        -.0026024       0.              -4.741-4
CBAR     448     14      494     457     0.      0.      1.
*                                        -.0026024       0.
*        -4.741-4        -.0026024       0.              -4.741-4
CBAR     449     14      456     494     0.      0.      1.
*                                        -.0026024       0.
*        -4.741-4        -.0026024       0.              -4.741-4
CBAR     450     14      456     487     0.      0.      1.
*                                        -.0026024       0.
*        -4.741-4        -.0026024       0.              -4.741-4
CBAR     451     14      487     452     0.      0.      1.
*                                        -.0026024       0.
*        -4.741-4        -.0026024       0.              -4.741-4
CBAR     464     14      457     522     0.      0.      1.
*                                        -.0026024       0.
*        -4.741-4        -.0026024       0.              -4.741-4
CBAR     465     14      522     468     0.      0.      1.
*                                        -.0026024       0.
*        -4.741-4        -.0026024       0.              -4.741-4
CBAR     466     14      515     468     0.      0.      1.
*                                        -.0026024       0.
*        -4.741-4        -.0026024       0.              -4.741-4
CBAR     467     14      464     515     0.      0.      1.
*                                        -.0026024       0.
*        -4.741-4        -.0026024       0.              -4.741-4
$ Elements and Element Properties for region : 14_RIG-H3_yp
PBARL    15      1               BAR
         .004   .0050625 0.
$ Pset: "14_RIG-H3_yp" will be imported as: "pbarl.15"
CBAR     234     15      200     201     0.      0.      1.
                         0.     .0026024-4.741-4 0.     .0026024-4.741-4
CBAR     235     15      201     202     0.      0.      1.
                         0.     .0026024-4.741-4 0.     .0026024-4.741-4
CBAR     236     15      202     203     0.      0.      1.
                         0.     .0026024-4.741-4 0.     .0026024-4.741-4
CBAR     237     15      203     204     0.      0.      1.
                         0.     .0026024-4.741-4 0.     .0026024-4.741-4
CBAR     238     15      204     210     0.      0.      1.
                         0.     .0026024-4.741-4 0.     .0026024-4.741-4
CBAR     239     15      210     209     0.      0.      1.
                         0.     .0026024-4.741-4 0.     .0026024-4.741-4
CBAR     240     15      209     208     0.      0.      1.
                         0.     .0026024-4.741-4 0.     .0026024-4.741-4
CBAR     241     15      208     207     0.      0.      1.
                         0.     .0026024-4.741-4 0.     .0026024-4.741-4
CBAR     334     15      307     310     0.      0.      1.
                         0.     .0026024-4.741-4 0.     .0026024-4.741-4
CBAR     335     15      310     309     0.      0.      1.
                         0.     .0026024-4.741-4 0.     .0026024-4.741-4
CBAR     336     15      302     308     0.      0.      1.
                         0.     .0026024-4.741-4 0.     .0026024-4.741-4
CBAR     337     15      308     307     0.      0.      1.
                         0.     .0026024-4.741-4 0.     .0026024-4.741-4
CBAR     338     15      300     301     0.      0.      1.
                         0.     .0026024-4.741-4 0.     .0026024-4.741-4
CBAR     339     15      301     302     0.      0.      1.
                         0.     .0026024-4.741-4 0.     .0026024-4.741-4
CBAR     340     15      300     301     0.      0.      1.
                         0.     .0026024-4.741-4 0.     .0026024-4.741-4
CBAR     341     15      301     302     0.      0.      1.
                         0.     .0026024-4.741-4 0.     .0026024-4.741-4
CBAR     342     15      303     304     0.      0.      1.
                         0.     .0026024-4.741-4 0.     .0026024-4.741-4
CBAR     343     15      304     300     0.      0.      1.
                         0.     .0026024-4.741-4 0.     .0026024-4.741-4
CBAR     344     15      303     304     0.      0.      1.
                         0.     .0026024-4.741-4 0.     .0026024-4.741-4
CBAR     345     15      304     300     0.      0.      1.
                         0.     .0026024-4.741-4 0.     .0026024-4.741-4
$ ... 32 like lines cut
$ Elements and Element Properties for region : 14_RIG-H3_yn
PBARL    16      1               BAR
         .004   .0050625 0.
$ Pset: "14_RIG-H3_yn" will be imported as: "pbarl.16"
CBAR     226     16      215     214     0.      0.      1.
*                                        0.              -.0026024
*        -4.741-4        0.              -.0026024       -4.741-4
CBAR     227     16      214     213     0.      0.      1.
*                                        0.              -.0026024
*        -4.741-4        0.              -.0026024       -4.741-4
CBAR     228     16      217     216     0.      0.      1.
*                                        0.              -.0026024
*        -4.741-4        0.              -.0026024       -4.741-4
CBAR     229     16      216     215     0.      0.      1.
*                                        0.              -.0026024
*        -4.741-4        0.              -.0026024       -4.741-4
CBAR     230     16      221     222     0.      0.      1.
*                                        0.              -.0026024
*        -4.741-4        0.              -.0026024       -4.741-4
CBAR     231     16      222     217     0.      0.      1.
*                                        0.              -.0026024
*        -4.741-4        0.              -.0026024       -4.741-4
CBAR     232     16      219     220     0.      0.      1.
*                                        0.              -.0026024
*        -4.741-4        0.              -.0026024       -4.741-4
CBAR     233     16      220     221     0.      0.      1.
*                                        0.              -.0026024
*        -4.741-4        0.              -.0026024       -4.741-4
CBAR     326     16      313     317     0.      0.      1.
*                                        0.              -.0026024
*        -4.741-4        0.              -.0026024       -4.741-4
CBAR     327     16      317     316     0.      0.      1.
*                                        0.              -.0026024
*        -4.741-4        0.              -.0026024       -4.741-4
CBAR     328     16      315     314     0.      0.      1.
*                                        0.              -.0026024
*        -4.741-4        0.              -.0026024       -4.741-4
CBAR     329     16      314     313     0.      0.      1.
*                                        0.              -.0026024
*        -4.741-4        0.              -.0026024       -4.741-4
CBAR     330     16      319     320     0.      0.      1.
*                                        0.              -.0026024
*        -4.741-4        0.              -.0026024       -4.741-4
CBAR     331     16      320     315     0.      0.      1.
*                                        0.              -.0026024
*        -4.741-4        0.              -.0026024       -4.741-4
CBAR     332     16      321     322     0.      0.      1.
*                                        0.              -.0026024
*        -4.741-4        0.              -.0026024       -4.741-4
CBAR     333     16      322     319     0.      0.      1.
*                                        0.              -.0026024
*        -4.741-4        0.              -.0026024       -4.741-4
CBAR     424     16      413     417     0.      0.      1.
*                                        0.              -.0026024
*        -4.741-4        0.              -.0026024       -4.741-4
CBAR     425     16      417     416     0.      0.      1.
*                                        0.              -.0026024
*        -4.741-4        0.              -.0026024       -4.741-4
CBAR     426     16      415     414     0.      0.      1.
*                                        0.              -.0026024
*        -4.741-4        0.              -.0026024       -4.741-4
CBAR     427     16      414     413     0.      0.      1.
*                                        0.              -.0026024
*        -4.741-4        0.              -.0026024       -4.741-4
$ ... 36 like lines cut
$ Elements and Element Properties for region : 16_RIG-H5
PBARL    17      1               BAR
         .005    .0013   0.
$ Pset: "16_RIG-H5" will be imported as: "pbarl.17"
CBAR     144     17      125     126     0.      0.      1.
                         0.      0.      .001    0.      0.      .001
CBAR     145     17      126     116     0.      0.      1.
                         0.      0.      .001    0.      0.      .001
CBAR     146     17      125     126     0.      0.      1.
                         0.      0.      .001    0.      0.      .001
CBAR     147     17      126     116     0.      0.      1.
                         0.      0.      .001    0.      0.      .001
CBAR     148     17      116     118     0.      0.      1.
                         0.      0.      .001    0.      0.      .001
CBAR     149     17      118     105     0.      0.      1.
                         0.      0.      .001    0.      0.      .001
CBAR     150     17      116     118     0.      0.      1.
                         0.      0.      .001    0.      0.      .001
CBAR     151     17      118     105     0.      0.      1.
                         0.      0.      .001    0.      0.      .001
CBAR     152     17      101     103     0.      0.      1.
                         0.      0.      .001    0.      0.      .001
CBAR     153     17      103     105     0.      0.      1.
                         0.      0.      .001    0.      0.      .001
CBAR     154     17      101     103     0.      0.      1.
                         0.      0.      .001    0.      0.      .001
CBAR     155     17      103     105     0.      0.      1.
                         0.      0.      .001    0.      0.      .001
CBAR     156     17      113     114     0.      0.      1.
                         0.      0.      .001    0.      0.      .001
CBAR     157     17      114     101     0.      0.      1.
                         0.      0.      .001    0.      0.      .001
CBAR     158     17      113     114     0.      0.      1.
                         0.      0.      .001    0.      0.      .001
CBAR     159     17      114     101     0.      0.      1.
                         0.      0.      .001    0.      0.      .001
CBAR     160     17      130     127     0.      0.      1.
                         0.      0.      .001    0.      0.      .001
CBAR     161     17      127     101     0.      0.      1.
                         0.      0.      .001    0.      0.      .001
CBAR     162     17      100     101     0.      0.      1.
                         0.      0.      .001    0.      0.      .001
CBAR     163     17      106     100     0.      0.      1.
                         0.      0.      .001    0.      0.      .001
$ ... 212 like lines cut
$ Elements and Element Properties for region : 17_RIG-H6
PBARL    18      1               BAR
         .0015   .0013   0.
$ Pset: "17_RIG-H6" will be imported as: "pbarl.18"
CBAR     504     18      469     470     0.      0.      1.
*                                        0.              0.
*        -8.9999998-4    0.              0.              -8.9999998-4
CBAR     505     18      446     470     0.      0.      1.
*                                        0.              0.
*        -8.9999998-4    0.              0.              -8.9999998-4
CBAR     506     18      470     471     0.      0.      1.
*                                        0.              0.
*        -8.9999998-4    0.              0.              -8.9999998-4
CBAR     507     18      447     471     0.      0.      1.
*                                        0.              0.
*        -8.9999998-4    0.              0.              -8.9999998-4
CBAR     508     18      471     472     0.      0.      1.
*                                        0.              0.
*        -8.9999998-4    0.              0.              -8.9999998-4
CBAR     509     18      448     472     0.      0.      1.
*                                        0.              0.
*        -8.9999998-4    0.              0.              -8.9999998-4
CBAR     510     18      449     473     0.      0.      1.
*                                        0.              0.
*        -8.9999998-4    0.              0.              -8.9999998-4
CBAR     511     18      472     473     0.      0.      1.
*                                        0.              0.
*        -8.9999998-4    0.              0.              -8.9999998-4
CBAR     512     18      450     474     0.      0.      1.
*                                        0.              0.
*        -8.9999998-4    0.              0.              -8.9999998-4
CBAR     513     18      470     474     0.      0.      1.
*                                        0.              0.
*        -8.9999998-4    0.              0.              -8.9999998-4
CBAR     514     18      474     475     0.      0.      1.
*                                        0.              0.
*        -8.9999998-4    0.              0.              -8.9999998-4
CBAR     515     18      471     475     0.      0.      1.
*                                        0.              0.
*        -8.9999998-4    0.              0.              -8.9999998-4
CBAR     516     18      475     476     0.      0.      1.
*                                        0.              0.
*        -8.9999998-4    0.              0.              -8.9999998-4
CBAR     517     18      472     476     0.      0.      1.
*                                        0.              0.
*        -8.9999998-4    0.              0.              -8.9999998-4
CBAR     518     18      473     477     0.      0.      1.
*                                        0.              0.
*        -8.9999998-4    0.              0.              -8.9999998-4
CBAR     519     18      476     477     0.      0.      1.
*                                        0.              0.
*        -8.9999998-4    0.              0.              -8.9999998-4
CBAR     520     18      478     479     0.      0.      1.
*                                        0.              0.
*        -8.9999998-4    0.              0.              -8.9999998-4
CBAR     521     18      474     479     0.      0.      1.
*                                        0.              0.
*        -8.9999998-4    0.              0.              -8.9999998-4
CBAR     522     18      479     480     0.      0.      1.
*                                        0.              0.
*        -8.9999998-4    0.              0.              -8.9999998-4
CBAR     523     18      475     480     0.      0.      1.
*                                        0.              0.
*        -8.9999998-4    0.              0.              -8.9999998-4
$ ... 306 like lines cut
$ Elements and Element Properties for region : 20_CBUSH
PBUSH    19      K       1.+9    1.+9    1.+9    100.    1.+7    1.+7
$ Pset: "20_CBUSH" will be imported as: "pbush.19"
CBUSH    1       19      1       10                              1
         .5
CBUSH    2       19      2       11                              1
         .5
CBUSH    3       19      3       12                              1
         .5
CBUSH    4       19      4       13                              1
         .5
CBUSH    5       19      5       14                              1
         .5
CBUSH    6       19      6       15                              1
         .5
CBUSH    7       19      7       16                              1
         .5
CBUSH    8       19      8       17                              1
         .5
$ Elements and Element Properties for region : 21_CBUSH_CONTACT
PBUSH    20      K       1.+9    1.+9    1.+9           1000000.1000000.
$ Pset: "21_CBUSH_CONTACT" will be imported as: "pbush.20"
CBUSH    100000  20      141     1044                            1
         .5
CBUSH    100001  20      109     1010                            1
         .5
CBUSH    100002  20      110     1012                            1
         .5
CBUSH    100003  20      113     1014                            1
         .5
CBUSH    100004  20      133     1034                            1
         .5
CBUSH    100005  20      134     1036                            1
         .5
CBUSH    100006  20      130     1029                            1
         .5
CBUSH    100007  20      131     1028                            1
         .5
CBUSH    100008  20      132     1027                            1
         .5
CBUSH    100009  20      135     1033                            1
         .5
CBUSH    100010  20      139     1038                            1
         .5
CBUSH    100011  20      140     1037                            1
         .5
CBUSH    100012  20      143     1041                            1
         .5
CBUSH    100013  20      121     1022                            1
         .5
CBUSH    100014  20      122     1024                            1
         .5
CBUSH    100015  20      125     1026                            1
         .5
CBUSH    100016  20      142     1043                            1
         .5
CBUSH    100017  20      106     1002                            1
         .5
CBUSH    100018  20      107     1001                            1
         .5
CBUSH    100019  20      108     1000                            1
         .5
$ ... 176 like lines cut
$ Elements and Element Properties for region : 01_t-wall-delgadas
PSHELL*  21              1               6.9999998-4     1
*                        1
$ Pset: "01_t-wall-delgadas" will be imported as: "pshell.21"
CQUAD4   1009    21      111     201     202     106     0.      0.
CQUAD4   1011    21      107     203     204     108     0.      0.
CQUAD4   1012    21      109     200     205     110     0.      0.
CQUAD4   1013    21      110     205     206     113     0.      0.
CQUAD4   1023    21      123     119     209     208     0.      0.
CQUAD4   1025    21      120     108     204     210     0.      0.
CQUAD4   1026    21      121     122     211     207     0.      0.
CQUAD4   1027    21      122     125     212     211     0.      0.
CQUAD4   1037    21      135     130     215     214     0.      0.
CQUAD4   1039    21      131     132     217     216     0.      0.
CQUAD4   1040    21      133     134     218     213     0.      0.
CQUAD4   1041    21      134     113     206     218     0.      0.
CQUAD4   1051    21      143     220     221     139     0.      0.
CQUAD4   1053    21      140     222     217     132     0.      0.
CQUAD4   1054    21      141     219     223     142     0.      0.
CQUAD4   1055    21      142     223     212     125     0.      0.
CQUAD4   2032    21      202     203     301     300     0.      0.
CQUAD4   2033    21      203     204     302     301     0.      0.
CQUAD4   2034    21      200     201     304     303     0.      0.
CQUAD4   2035    21      201     202     300     304     0.      0.
$ ... 68 like lines cut
$ Elements and Element Properties for region : 05_t-tapa
PSHELL*  22              1               5.0000002-4     1
*                        1
$ Pset: "05_t-tapa" will be imported as: "pshell.22"
CQUAD4   4056    22      445     469     470     446     0.      0.
CQUAD4   4057    22      446     470     471     447     0.      0.
CQUAD4   4058    22      447     471     472     448     0.      0.
CQUAD4   4059    22      448     472     473     449     0.      0.
CQUAD4   4060    22      469     450     474     470     0.      0.
CQUAD4   4061    22      470     474     475     471     0.      0.
CQUAD4   4062    22      471     475     476     472     0.      0.
CQUAD4   4063    22      472     476     477     473     0.      0.
CQUAD4   4064    22      450     478     479     474     0.      0.
CQUAD4   4065    22      474     479     480     475     0.      0.
CQUAD4   4066    22      475     480     481     476     0.      0.
CQUAD4   4067    22      478     451     482     479     0.      0.
CQUAD4   4068    22      479     482     483     480     0.      0.
CQUAD4   4069    22      480     483     484     481     0.      0.
CQUAD4   4070    22      481     484     486     485     0.      0.
CQUAD4   4071    22      476     481     485     477     0.      0.
CQUAD4   4072    22      452     453     488     487     0.      0.
CQUAD4   4073    22      453     454     489     488     0.      0.
CQUAD4   4074    22      454     455     490     489     0.      0.
CQUAD4   4075    22      455     449     473     490     0.      0.
$ ... 44 like lines cut
$ Elements and Element Properties for region : 06_t-rig-base
PSHELL   23      1       .005    1               1
$ Pset: "06_t-rig-base" will be imported as: "pshell.23"
CQUAD4   1008    23      109     200     201     111     0.      0.
CQUAD4   1010    23      106     202     203     107     0.      0.
CQUAD4   1022    23      121     123     208     207     0.      0.
CQUAD4   1024    23      119     120     210     209     0.      0.
CQUAD4   1036    23      133     135     214     213     0.      0.
CQUAD4   1038    23      130     131     216     215     0.      0.
CQUAD4   1050    23      141     219     220     143     0.      0.
CQUAD4   1052    23      139     221     222     140     0.      0.
$ Elements and Element Properties for region : 07_t-bandejas
PSHELL*  24              1               6.9999998-4     1
*                        1
$ Pset: "07_t-bandejas" will be imported as: "pshell.24"
CQUAD4   1000    24      100     101     103     102     0.      0.
CQUAD4   1001    24      102     103     105     104     0.      0.
CQUAD4   1002    24      106     100     102     107     0.      0.
CQUAD4   1003    24      107     102     104     108     0.      0.
CQUAD4   1004    24      109     110     112     111     0.      0.
CQUAD4   1005    24      111     112     100     106     0.      0.
CQUAD4   1006    24      110     113     114     112     0.      0.
CQUAD4   1007    24      112     114     101     100     0.      0.
CQUAD4   1014    24      115     117     118     116     0.      0.
CQUAD4   1015    24      117     104     105     118     0.      0.
CQUAD4   1016    24      119     120     117     115     0.      0.
CQUAD4   1017    24      120     108     104     117     0.      0.
CQUAD4   1018    24      121     123     124     122     0.      0.
CQUAD4   1019    24      123     119     115     124     0.      0.
CQUAD4   1020    24      122     124     126     125     0.      0.
CQUAD4   1021    24      124     115     116     126     0.      0.
CQUAD4   1028    24      127     128     103     101     0.      0.
CQUAD4   1029    24      128     129     105     103     0.      0.
CQUAD4   1030    24      130     131     128     127     0.      0.
CQUAD4   1031    24      131     132     129     128     0.      0.
$ ... 76 like lines cut
$ Elements and Element Properties for region : 09_A_t-boards-PSU
PSHELL   25      2       .0016   2               2
$ Pset: "09_A_t-boards-PSU" will be imported as: "pshell.25"
CQUAD4   10000   25      1000    1001    1004    1003    0.      0.
CQUAD4   10001   25      1001    1002    1005    1004    0.      0.
CQUAD4   10002   25      1003    1004    1007    1006    0.      0.
CQUAD4   10003   25      1004    1005    1008    1007    0.      0.
CQUAD4   10004   25      1002    1009    1011    1005    0.      0.
CQUAD4   10005   25      1009    1010    1012    1011    0.      0.
CQUAD4   10006   25      1005    1011    1013    1008    0.      0.
CQUAD4   10007   25      1011    1012    1014    1013    0.      0.
CQUAD4   10008   25      1000    1003    1017    1015    0.      0.
CQUAD4   10009   25      1015    1017    1018    1016    0.      0.
CQUAD4   10010   25      1003    1006    1019    1017    0.      0.
CQUAD4   10011   25      1017    1019    1020    1018    0.      0.
CQUAD4   10012   25      1016    1018    1023    1021    0.      0.
CQUAD4   10013   25      1021    1023    1024    1022    0.      0.
CQUAD4   10014   25      1018    1020    1025    1023    0.      0.
CQUAD4   10015   25      1023    1025    1026    1024    0.      0.
CQUAD4   10016   25      1027    1030    1031    1028    0.      0.
CQUAD4   10017   25      1028    1031    1032    1029    0.      0.
CQUAD4   10018   25      1030    1006    1007    1031    0.      0.
CQUAD4   10019   25      1031    1007    1008    1032    0.      0.
$ ... 12 like lines cut
$ Elements and Element Properties for region : 09_B_t-boards-MOD
PSHELL   26      3       .0016   3               3
$ Pset: "09_B_t-boards-MOD" will be imported as: "pshell.26"
CQUAD4   20000   26      2000    2001    2004    2003    0.      0.
CQUAD4   20001   26      2001    2002    2005    2004    0.      0.
CQUAD4   20002   26      2003    2004    2007    2006    0.      0.
CQUAD4   20003   26      2004    2005    2008    2007    0.      0.
CQUAD4   20004   26      2002    2009    2011    2005    0.      0.
CQUAD4   20005   26      2009    2010    2012    2011    0.      0.
CQUAD4   20006   26      2005    2011    2013    2008    0.      0.
CQUAD4   20007   26      2011    2012    2014    2013    0.      0.
CQUAD4   20008   26      2000    2003    2017    2015    0.      0.
CQUAD4   20009   26      2015    2017    2018    2016    0.      0.
CQUAD4   20010   26      2003    2006    2019    2017    0.      0.
CQUAD4   20011   26      2017    2019    2020    2018    0.      0.
CQUAD4   20012   26      2016    2018    2023    2021    0.      0.
CQUAD4   20013   26      2021    2023    2024    2022    0.      0.
CQUAD4   20014   26      2018    2020    2025    2023    0.      0.
CQUAD4   20015   26      2023    2025    2026    2024    0.      0.
CQUAD4   20016   26      2027    2030    2031    2028    0.      0.
CQUAD4   20017   26      2028    2031    2032    2029    0.      0.
CQUAD4   20018   26      2030    2006    2007    2031    0.      0.
CQUAD4   20019   26      2031    2007    2008    2032    0.      0.
$ ... 12 like lines cut
$ Elements and Element Properties for region : 09_C_t-boards-PROC
PSHELL   27      4       .0016   4               4
$ Pset: "09_C_t-boards-PROC" will be imported as: "pshell.27"
CQUAD4   40000   27      4000    4001    4004    4003    0.      0.
CQUAD4   40001   27      4001    4002    4005    4004    0.      0.
CQUAD4   40002   27      4003    4004    4007    4006    0.      0.
CQUAD4   40003   27      4004    4005    4008    4007    0.      0.
CQUAD4   40004   27      4002    4009    4011    4005    0.      0.
CQUAD4   40005   27      4009    4010    4012    4011    0.      0.
CQUAD4   40006   27      4005    4011    4013    4008    0.      0.
CQUAD4   40007   27      4011    4012    4014    4013    0.      0.
CQUAD4   40008   27      4000    4003    4017    4015    0.      0.
CQUAD4   40009   27      4015    4017    4018    4016    0.      0.
CQUAD4   40010   27      4003    4006    4019    4017    0.      0.
CQUAD4   40011   27      4017    4019    4020    4018    0.      0.
CQUAD4   40012   27      4016    4018    4023    4021    0.      0.
CQUAD4   40013   27      4021    4023    4024    4022    0.      0.
CQUAD4   40014   27      4018    4020    4025    4023    0.      0.
CQUAD4   40015   27      4023    4025    4026    4024    0.      0.
CQUAD4   40016   27      4027    4030    4031    4028    0.      0.
CQUAD4   40017   27      4028    4031    4032    4029    0.      0.
CQUAD4   40018   27      4030    4006    4007    4031    0.      0.
CQUAD4   40019   27      4031    4007    4008    4032    0.      0.
$ ... 12 like lines cut
$ Elements and Element Properties for region : 09_D_t-boards-FPGA
PSHELL   28      5       .0016   5               5
$ Pset: "09_D_t-boards-FPGA" will be imported as: "pshell.28"
CQUAD4   30000   28      3000    3001    3004    3003    0.      0.
CQUAD4   30001   28      3001    3002    3005    3004    0.      0.
CQUAD4   30002   28      3003    3004    3007    3006    0.      0.
CQUAD4   30003   28      3004    3005    3008    3007    0.      0.
CQUAD4   30004   28      3002    3009    3011    3005    0.      0.
CQUAD4   30005   28      3009    3010    3012    3011    0.      0.
CQUAD4   30006   28      3005    3011    3013    3008    0.      0.
CQUAD4   30007   28      3011    3012    3014    3013    0.      0.
CQUAD4   30008   28      3000    3003    3017    3015    0.      0.
CQUAD4   30009   28      3015    3017    3018    3016    0.      0.
CQUAD4   30010   28      3003    3006    3019    3017    0.      0.
CQUAD4   30011   28      3017    3019    3020    3018    0.      0.
CQUAD4   30012   28      3016    3018    3023    3021    0.      0.
CQUAD4   30013   28      3021    3023    3024    3022    0.      0.
CQUAD4   30014   28      3018    3020    3025    3023    0.      0.
CQUAD4   30015   28      3023    3025    3026    3024    0.      0.
CQUAD4   30016   28      3027    3030    3031    3028    0.      0.
CQUAD4   30017   28      3028    3031    3032    3029    0.      0.
CQUAD4   30018   28      3030    3006    3007    3031    0.      0.
CQUAD4   30019   28      3031    3007    3008    3032    0.      0.
$ ... 12 like lines cut
$ Elements and Element Properties for region : 07_t-bandejas_FPGA
PSHELL*  29              6               6.9999998-4     6
*                        6
$ Pset: "07_t-bandejas_FPGA" will be imported as: "pshell.29"
CQUAD4   3000    29      324     325     327     326     0.      0.
CQUAD4   3001    29      326     327     329     328     0.      0.
CQUAD4   3002    29      300     324     326     301     0.      0.
CQUAD4   3003    29      301     326     328     302     0.      0.
CQUAD4   3004    29      303     305     330     304     0.      0.
CQUAD4   3005    29      304     330     324     300     0.      0.
CQUAD4   3006    29      305     306     331     330     0.      0.
CQUAD4   3007    29      330     331     325     324     0.      0.
CQUAD4   3008    29      332     334     335     333     0.      0.
CQUAD4   3009    29      334     328     329     335     0.      0.
CQUAD4   3010    29      307     308     334     332     0.      0.
CQUAD4   3011    29      308     302     328     334     0.      0.
CQUAD4   3012    29      309     310     336     311     0.      0.
CQUAD4   3013    29      310     307     332     336     0.      0.
CQUAD4   3014    29      311     336     337     312     0.      0.
CQUAD4   3015    29      336     332     333     337     0.      0.
CQUAD4   3016    29      338     339     327     325     0.      0.
CQUAD4   3017    29      339     340     329     327     0.      0.
CQUAD4   3018    29      313     314     339     338     0.      0.
CQUAD4   3019    29      314     315     340     339     0.      0.
$ ... 12 like lines cut
$ Referenced Material Records
$ Material Record : Al_7075-T7351
$ Description of Material :
MAT1,1,3.7885598933E+10,,3.3000000000E-01,4.4837736036E+03
$ Material Record : PCB_PSU
$ Description of Material :
MAT1,2,8.0000000000E+10,,3.3000000000E-01,9.7306420680E+03
$ Material Record : PCB_MOD
$ Description of Material :
MAT1,3,8.0000000000E+10,,3.3000000000E-01,9.7306420680E+03
$ Material Record : PCB_PROC
$ Description of Material :
MAT1,4,8.0000000000E+10,,3.3000000000E-01,9.7306420680E+03
$ Material Record : PCB_FPGA
$ Description of Material :
MAT1,5,4.0000000000E+10,,3.3000000000E-01,9.7306420680E+03
$ Material Record : Bandeja_FPGA
$ Description of Material :
MAT1,6,3.7885598933E+10,,3.3000000000E-01,4.4837736036E+03
$ Multipoint Constraints of the Entire Model
RBE2     400027  17      123456  109     111     200     201
RBE2     400028  15      123456  106     107     202     203
RBE2     400029  13      123456  119     120     209     210
RBE2     400030  11      123456  121     123     207     208
RBE2     400031  10      123456  141     143     219     220
RBE2     400032  12      123456  139     140     221     222
RBE2     400033  14      123456  130     131     215     216
RBE2     400034  16      123456  133     135     213     214
$ Nodes of the Entire Model
GRID*    1                               -.1017500013113-.09324999898672
*        -.001
GRID*    2                               -.1017500013113.093249998986721
*        -.001
GRID*    3                              -.03457999974489-.09324999898672
*        -.001
GRID*    4                              -.03457999974489.093249998986721
*        -.001
GRID*    5                              .034579999744892-.09324999898672
*        -.001
GRID*    6                              .034579999744892.093249998986721
*        -.001
GRID*    7                              .101750001311302-.09324999898672
*        -.001
GRID*    8                              .101750001311302.093249998986721
*        -.001
GRID*    10                              -.1017500013113-.09324999898672
*        0.
GRID*    11                              -.1017500013113.093249998986721
*        0.
GRID*    12                             -.03457999974489-.09324999898672
*        0.
GRID*    13                             -.03457999974489.093249998986721
*        0.
GRID*    14                             .034579999744892-.09324999898672
*        0.
GRID*    15                             .034579999744892.093249998986721
*        0.
GRID*    16                             .101750001311302-.09324999898672
*        0.
GRID*    17                             .101750001311302.093249998986721
*        0.
GRID*    100                            .053374998271465.041625998914242
*       3.46944695195-18
GRID*    101                            .053374998271465-2.3198781784-10
*       3.46944695195-18
GRID*    102                            .026687497273088.041625998914242
*       3.46944695195-18
GRID*    103                            .026687497273088-2.3198781784-10
*       3.46944695195-18
$ ... 874 like lines cut
$ Loads for Load Case : Default
SPCADD   2       1
$ Displacement Constraints of Load Set : FIX_123456
SPC1     1       123456  1       THRU    8
$ Referenced Coordinate Frames
CORD2R   1               0.      0.      0.      -1.     0.      0.
         0.      0.      1.
ENDDATA e43856d8
