$ Minimal MAT1 fixture
BEGIN BULK
MAT1*    1               7.0999998+10    2.6691729+10    .33
*        2800.
MAT1*    2               8.+10           3.0075187+10    .33
*        9929.2266
ENDDATA

